Version 4
SHEET 1 980 728
WIRE -48 -224 -496 -224
WIRE -48 -112 -48 -224
WIRE 400 -16 176 -16
WIRE 848 -16 400 -16
WIRE 176 16 176 -16
WIRE -48 64 -48 -48
WIRE 112 64 -48 64
WIRE 400 96 400 -16
WIRE 848 112 848 -16
WIRE -496 160 -496 -224
WIRE -48 224 -48 64
WIRE 176 272 176 112
WIRE 176 416 176 352
WIRE 400 416 400 160
WIRE 400 416 176 416
WIRE 848 416 848 192
WIRE 848 416 400 416
WIRE -496 688 -496 240
WIRE -48 688 -48 304
WIRE -48 688 -496 688
FLAG -496 688 0
SYMBOL voltage -496 144 R0
WINDOW 123 0 0 Left 0
WINDOW 39 0 0 Left 0
SYMATTR InstName V1
SYMATTR Value PULSE(0 10 0 0 0 0.5 1)
SYMBOL npn2 112 16 R0
SYMATTR InstName Q1
SYMATTR Value 2SC3906K
SYMBOL ind 160 256 R0
SYMATTR InstName L1
SYMATTR Value 0.1nH
SYMBOL res -64 208 R0
SYMATTR InstName R1
SYMATTR Value 500R
SYMBOL cap 384 96 R0
SYMATTR InstName C3
SYMATTR Value 0.1µF
SYMBOL cap -64 -112 R0
SYMATTR InstName C1
SYMATTR Value 3nF
SYMBOL voltage 848 208 R180
WINDOW 123 0 0 Left 0
WINDOW 39 0 0 Left 0
SYMATTR InstName V3
SYMATTR Value 1000v
TEXT -528 712 Left 2 !.tran 3
